WS_Concat='"F:\DZ\DZTool\." "F:\CATIAV5R19\."'
F_DZToolFrame='mkFramework "F:\DZ\DZTool\.\DZToolFrame" DZToolFrame DZToolFrame - -'
RTViewDataListPath='F:\DZ\DZTool\.\DZToolFrame\various\intel_a\DZToolModuleProductAttr.m\module.data'
MKMK_DEVSTAGE=''
BUILT_OBJECT_TYPE='SHARED LIBRARY'
MKMK_BSCMAKE=''
WSEKEY='M_DZToolModuleProductAttr'
MOD_Included='M_DZToolModuleProductAttr'
M_CATMathStream='mkSharedLibrary "F:\CATIAV5R19\.\Mathematics\CATMathStream.m" CATMathStream CATMathStream - -'
MODNAME='DZToolModuleProductAttr'
CONTNAME='DZToolModuleProductAttr'
FWmkHLpath='F:\DZ\DZTool\.\DZToolFrame\IdentityCard\Objects\intel_a\.mkHLpath.mk'
M_JS0GROUP='mkSharedLibrary "F:\CATIAV5R19\.\System\JS0GROUP.m" JS0GROUP JS0GROUP - -'
M_DZToolModuleProductAttr='mkSharedLibrary "F:\DZ\DZTool\.\DZToolFrame\DZToolModuleProductAttr.m" DZToolModuleProductAttr DZToolModuleProductAttr - -'
WIZARD_LINK_MODULES='JS0GROUP JS0GROUP JS0FM DI0PANV2 CATMathematics CATDialogEngine CATApplicationFrame'
MKMK_WARNING=''
M_JS0FM='mkSharedLibrary "F:\CATIAV5R19\.\System\JS0FM.m" JS0FM JS0FM - -'
FWDNAME='DZToolFrame'
MKMK_ZIPJAVASOURCE=''
GPrivate='F:\DZ\DZTool\.\DZToolFrame\PrivateGenerated\intel_a'
IPublic='F:\DZ\DZTool\.\DZToolFrame\PublicInterfaces'
IPrivate='F:\DZ\DZTool\.\DZToolFrame\PrivateInterfaces'
GPublic='F:\DZ\DZTool\.\DZToolFrame\PublicGenerated\intel_a'
MKMK_DEBUGEDITANDCONTINUE=''
GProtected='F:\DZ\DZTool\.\DZToolFrame\ProtectedGenerated\intel_a'
WSROOT='F:\DZ\DZTool\.'
IProtected='F:\DZ\DZTool\.\DZToolFrame\ProtectedInterfaces'
MKMK_DATA_VERSION='1.0.0'
STEPS_TO_CLEAN=''
NAME='F:\DZ\DZTool\.\DZToolFrame\DZToolModuleProductAttr.m\Objects\intel_a\.mkdata.mk'
STEPS_TO_BUILD='grammar1st grammar2nd sourcecheck caacheck typelibgrammar compilation sourceruler globalresource cpponly link1st link2nd'
FWNAME='DZToolFrame'
M_DI0PANV2='mkSharedLibrary "F:\CATIAV5R19\.\Dialog\DI0PANV2.m" DI0PANV2 DI0PANV2 - -'
M_CATApplicationFrame='mkSharedLibrary "F:\CATIAV5R19\.\ApplicationFrame\CATApplicationFrame.m" CATApplicationFrame CATApplicationFrame - -'
M_CATDialogEngine='mkSharedLibrary "F:\CATIAV5R19\.\DialogEngine\CATDialogEngine.m" CATDialogEngine CATDialogEngine - -'
MODPATH='F:\DZ\DZTool\.\DZToolFrame\DZToolModuleProductAttr.m'
FW_AllPreq='AdvancedMathematics,20DD2151;ApplicationFrame,21DD2151;AutomationInterfaces,20DD2151;BatchInfrastructure,20DD2151;CAT3DXmlInterfaces,20DD2151;CATDataCompatibilityInfra,20DD2151;CATGraphicProperties,20DD2151;CATIAApplicationFrame,20DD2151;CATIADataBasics,20DD2151;CATIADataMacFortran,20DD2151;CATImmWtpInterfaces,20DD2151;CATJavaBridge,20DD2151;CATPDMBaseInterfaces,20DD2151;CATPLMDictionary,20DD2151;CATSmarTeamIntegInterfaces,20DD2151;CATSubdivisionApproximation,20DD2151;CATSubdivisionMeshOperators,20DD2151;CATSubdivisionObjects,20DD2151;CATTechnologicalPackageUIItf,20DD2151;CATV4System,20DD2151;CATVirtualVaultSystem,20DD2151;CATXDocLinkInterfaces,20DD2151;Communications,20DD2151;ComponentsCatalogsInterfaces,20DD2151;Dialog,21DD2151;DialogEngine,21DD2151;FileMenu,20DD2151;GenericNaming,20DD2151;GeometricObjects,20DD2151;GeometricObjectsCGM,20DD2151;GeometricOperators,20DD2151;Graph,20DD2151;HLRBase,20DD2151;InfInterfaces,20DD2151;InteractiveInterfaces,20DD2151;KnowledgeInterfaces,20DD2151;KnowledgeModeler,20DD2151;LiteralFeatures,20DD2151;LiteralsEditor,20DD2151;Mainwin,20DD2151;Mathematics,21DD2151;MecModInterfaces,20DD2151;Multimedia,20DD2151;NewTopologicalObjects,20DD2151;ObjectModelerBase,20DC2151;ObjectModelerBaseUI,20DD2151;ObjectModelerCATIA,20DD2151;ObjectModelerCollection,20CC2151;ObjectModelerInterfaces,20DD2151;ObjectModelerNavigator,20DD2151;ObjectModelerSystem,20DD2151;ObjectSpecsModeler,20DD2151;PolygonalTools,20DD2151;PolyhedralInterfaces,20DD2151;PolyhedralMathematics,20DD2151;PolyhedralObjects,20DD2151;PolyhedralOperators,20DD2151;PolyhedralVisualization,20DD2151;Print,20DD2151;PrintBase,20DD2151;ProductStructure,20DD2151;ProductStructureInterfaces,20DD2151;ProductStructureUI,21DD2151;SketcherInterfaces,20DD2151;SpecialAPI,20DD2151;System,21DD2151;Tessellation,20DD2151;VBA,20DD2151;Visualization,20DD2151;VisualizationBase,20DD2151;XMLParser,20DD2151;'
FW_INCPATH='"F:\DZ\DZTool\.\DZToolFrame\PrivateInterfaces" "F:\DZ\DZTool\.\DZToolFrame\PrivateGenerated\intel_a" "F:\DZ\DZTool\.\DZToolFrame\ProtectedInterfaces" "F:\DZ\DZTool\.\DZToolFrame\ProtectedGenerated\intel_a" "F:\DZ\DZTool\.\DZToolFrame\PublicInterfaces" "F:\DZ\DZTool\.\DZToolFrame\PublicGenerated\intel_a"'
WSENAME_msg='DZToolFrame\DZToolModuleProductAttr.m'
MOD_Container='DZToolModuleProductAttr.m'
MOD_LinkWith='M_JS0GROUP M_JS0FM M_DI0PANV2 M_CATMathematics M_CATMathStream M_CATDialogEngine M_CATApplicationFrame'
REAL_LINK_WITH='JS0GROUP JS0FM DI0PANV2 CATMathematics CATMathStream CATDialogEngine CATApplicationFrame'
MKMK_DEBUG='YES'
WSPATH='F:\DZ\DZTool\.'
GLocal='F:\DZ\DZTool\.\DZToolFrame\DZToolModuleProductAttr.m\LocalGenerated\intel_a'
ILocal='F:\DZ\DZTool\.\DZToolFrame\DZToolModuleProductAttr.m\LocalInterfaces'
FWCOMPANYNAME='""'
MOD_INCPATH='"F:\DZ\DZTool\.\DZToolFrame\DZToolModuleProductAttr.m\src" "F:\DZ\DZTool\.\DZToolFrame\DZToolModuleProductAttr.m\LocalInterfaces" "F:\DZ\DZTool\.\DZToolFrame\DZToolModuleProductAttr.m\LocalGenerated\intel_a"'
FWPATH='F:\DZ\DZTool\.\DZToolFrame'
FWIDENT='dztoolframe'
LINK_WITH='JS0GROUP JS0GROUP JS0FM DI0PANV2 CATMathematics CATDialogEngine CATApplicationFrame'
M_CATMathematics='mkSharedLibrary "F:\CATIAV5R19\.\Mathematics\CATMathematics.m" CATMathematics CATMathematics - -'
